powerfulcases/cases/matpower/case10ba/case10ba.raw
0, 10, 33, 0, 0, 60  / 28-Jan-2026 21:50:11 - MATPOWER 8.1


     1, 'BUS 1       ',        23, 3,    1,    1, 1,           1,           0,    1,    1,    1,    1
     2, 'BUS 2       ',        23, 1,    1,    1, 1,           1,           0,  1.1,  0.9,  1.1,  0.9
     3, 'BUS 3       ',        23, 1,    1,    1, 1,           1,           0,  1.1,  0.9,  1.1,  0.9
     4, 'BUS 4       ',        23, 1,    1,    1, 1,           1,           0,  1.1,  0.9,  1.1,  0.9
     5, 'BUS 5       ',        23, 1,    1,    1, 1,           1,           0,  1.1,  0.9,  1.1,  0.9
     6, 'BUS 6       ',        23, 1,    1,    1, 1,           1,           0,  1.1,  0.9,  1.1,  0.9
     7, 'BUS 7       ',        23, 1,    1,    1, 1,           1,           0,  1.1,  0.9,  1.1,  0.9
     8, 'BUS 8       ',        23, 1,    1,    1, 1,           1,           0,  1.1,  0.9,  1.1,  0.9
     9, 'BUS 9       ',        23, 1,    1,    1, 1,           1,           0,  1.1,  0.9,  1.1,  0.9
    10, 'BUS 10      ',        23, 1,    1,    1, 1,           1,           0,  1.1,  0.9,  1.1,  0.9
0 / END OF BUS DATA, BEGIN LOAD DATA
     2,  1, 1,    1,    1,      1.84,      0.46, 0, 0, 0, 0, 1, 1, 0
     3,  1, 1,    1,    1,      0.98,      0.34, 0, 0, 0, 0, 1, 1, 0
     4,  1, 1,    1,    1,      1.79,     0.446, 0, 0, 0, 0, 1, 1, 0
     5,  1, 1,    1,    1,     1.598,      1.84, 0, 0, 0, 0, 1, 1, 0
     6,  1, 1,    1,    1,      1.61,       0.6, 0, 0, 0, 0, 1, 1, 0
     7,  1, 1,    1,    1,      0.78,      0.11, 0, 0, 0, 0, 1, 1, 0
     8,  1, 1,    1,    1,      1.15,      0.06, 0, 0, 0, 0, 1, 1, 0
     9,  1, 1,    1,    1,      0.98,      0.13, 0, 0, 0, 0, 1, 1, 0
    10,  1, 1,    1,    1,      1.64,       0.2, 0, 0, 0, 0, 1, 1, 0
0 / END OF LOAD DATA, BEGIN FIXED SHUNT DATA
0 / END OF FIXED SHUNT DATA, BEGIN GENERATOR DATA
     1,  1,         0,         0,        10,       -10,        1, 0,     100, 0, 1, 0, 0, 1, 1, 100,        10,         0, 1, 1, 0, 1, 0, 1, 0, 1, 0, 1
0 / END OF GENERATOR DATA, BEGIN BRANCH DATA
     1,      2, 1, 0.002330813, 0.007801512,        0,       0,       0,       0, 0, 0, 0, 0, 1, 1, 0, 1, 1, 0, 1, 0, 1, 0, 1
     2,      3, 1, 0.0002646503, 0.01143856,        0,       0,       0,       0, 0, 0, 0, 0, 1, 1, 0, 1, 1, 0, 1, 0, 1, 0, 1
     3,      4, 1, 0.01410775, 0.02277883,        0,       0,       0,       0, 0, 0, 0, 0, 1, 1, 0, 1, 1, 0, 1, 0, 1, 0, 1
     4,      5, 1, 0.01320227, 0.01150095,        0,       0,       0,       0, 0, 0, 0, 0, 1, 1, 0, 1, 1, 0, 1, 0, 1, 0, 1
     5,      6, 1, 0.03748771, 0.03265784,        0,       0,       0,       0, 0, 0, 0, 0, 1, 1, 0, 1, 1, 0, 1, 0, 1, 0, 1
     6,      7, 1, 0.01711342, 0.01490737,        0,       0,       0,       0, 0, 0, 0, 0, 1, 1, 0, 1, 1, 0, 1, 0, 1, 0, 1
     7,      8, 1, 0.03885066, 0.02200378,        0,       0,       0,       0, 0, 0, 0, 0, 1, 1, 0, 1, 1, 0, 1, 0, 1, 0, 1
     8,      9, 1, 0.09064839, 0.05134216,        0,       0,       0,       0, 0, 0, 0, 0, 1, 1, 0, 1, 1, 0, 1, 0, 1, 0, 1
     9,     10, 1, 0.1010095, 0.05720983,        0,       0,       0,       0, 0, 0, 0, 0, 1, 1, 0, 1, 1, 0, 1, 0, 1, 0, 1
0 / END OF BRANCH DATA, BEGIN TRANSFORMER DATA
0 / END OF TRANSFORMER DATA, BEGIN AREA DATA
0 / END OF AREA DATA, BEGIN TWO-TERMINAL DC DATA
0 / END OF TWO-TERMINAL DC DATA, BEGIN VOLTAGE SOURCE CONVERTER DATA
0 / END OF VOLTAGE SOURCE CONVERTER DATA, BEGIN IMPEDANCE CORRECTION DATA
0 / END OF IMPEDANCE CORRECTION DATA, BEGIN MULTI-TERMINAL DC DATA
0 / END OF MULTI-TERMINAL DC DATA, BEGIN MULTI-SECTION LINE DATA
0 / END OF MULTI-SECTION LINE DATA, BEGIN ZONE DATA
0 / END OF ZONE DATA, BEGIN INTER-AREA TRANSFER DATA
0 / END OF INTER-AREA TRANSFER DATA, BEGIN OWNER DATA
0 / END OF OWNER DATA, BEGIN FACTS CONTROL DEVICE DATA
0 / END OF FACTS CONTROL DEVICE DATA, BEGIN SWITCHED SHUNT DATA
0 / END OF SWITCHED SHUNT DATA, BEGIN GNE DEVICE DATA
0 / END OF GNE DEVICE DATA, BEGIN INDUCTION MACHINE DATA
0 / END OF INDUCTION MACHINE DATA
Q
